data_SFV_idealized
#**************************************************************************
#
# CIF taken from the IZA-SC Database of Zeolite Structures
# Ch. Baerlocher and L.B. McCusker
# Database of Zeolite Structures: http://www.iza-structure.org/databases/ 
#
# The atom coordinates and the cell parameters were optimized with DLS76
# assuming a pure SiO2 composition.
#
#**************************************************************************

_cell_length_a                  20.1528(0)
_cell_length_b                  20.1528(0)
_cell_length_c                 109.7563(0)
_cell_angle_alpha               90.0000(0)
_cell_angle_beta                90.0000(0)
_cell_angle_gamma               90.0000(0)

_symmetry_space_group_name_H-M     'P -4 m 2'
_symmetry_Int_Tables_number         115
_symmetry_cell_setting             tetragonal
loop_
_symmetry_equiv_pos_as_xyz
'+x,+y,+z'
'-x,-y,+z'
'+y,-x,-z'
'-y,+x,-z'
'+x,-y,+z'
'-x,+y,+z'
'+y,+x,-z'
'-y,-x,-z'

loop_
_atom_site_label
_atom_site_type_symbol
_atom_site_fract_x
_atom_site_fract_y
_atom_site_fract_z
O1    O       0.2939	0.1029    0.2604
O2    O       0.1919	0.0782    0.2748
O3    O       0.2174	0.0000    0.2562
O4    O       0.1719	0.1197    0.2522
O5    O       0.3099	0.0797    0.3172
O6    O       0.3203	0.1227    0.3398
O7    O       0.2837	0.0000    0.3355
O8    O       0.2024	0.0983    0.3304
O9    O       0.2866	0.2466    0.3367
O10    O       0.3198	 0.3722    0.3387
O11    O       0.3053	 0.3191    0.3171
O12    O       0.2001	 0.3392    0.3309
O13    O       0.0856	 0.1258    0.3397
O14    O       0.0000	 0.2140    0.3478
O15    O       0.1208	 0.2088    0.3570
O16    O       0.1030	 0.2533    0.3349
O17    O       0.4153	 0.1224    0.2525
O18    O       0.5000	 0.2023    0.2417
O19    O       0.3748	 0.1989    0.2345
O20    O       0.4059	 0.2517    0.2556
O21    O       0.1982	 0.2459    0.2538
O22    O       0.2456	 0.1771    0.2354
O23    O       0.1167	 0.2022    0.2367
O24    O       0.1812	 0.3744    0.2529
O25    O       0.2990	 0.3259    0.2585
O26    O       0.1994	 0.3163    0.2740
O27    O       0.1029	 0.5000    0.3467
O28    O       0.1191	 0.3884    0.3592
O29    O       0.0000	 0.4284    0.3532
O30    O       0.0810	 0.3828    0.3364
O31    O       0.5000	 0.3903    0.3639
O32    O       0.4157	 0.4202    0.3813
O33    O       0.3769	 0.4212    0.3584
O34    O       0.4031	 0.3078    0.3692
O35    O       0.1914	 0.4064    0.3786
O36    O       0.2465	 0.4137    0.3570
O37    O       0.2067	 0.2976    0.3654
O38    O       0.3811	 0.5000    0.3990
O39    O       0.4094	 0.3738    0.4036
O40    O       0.2998	 0.4051    0.3920
O41    O       0.3115	 0.5000    0.3438
O42    O       0.0000	 0.3758    0.2282
O43    O       0.0753	 0.4123    0.2100
O44    O       0.0967	 0.2979    0.2210
O45    O       0.1240	 0.4105    0.2323
O46    O       0.1020	 0.3276    0.3152
O47    O       0.0000	 0.1107    0.3020
O48    O       0.0956	 0.0807    0.3173
O49    O       0.1233	 0.1084    0.2943
O50    O       0.0836	 0.2033    0.3091
O51    O       0.3815	 0.1113    0.2980
O52    O       0.2996	 0.1989    0.3077
O53    O       0.2527	 0.0955    0.2958
O54    O       0.5000	 0.1018    0.2883
O55    O       0.4214	 0.2007    0.2821
O56    O       0.3947	 0.0791    0.2748
O57    O       0.2108	 0.5000    0.3951
O58    O       0.1842	 0.3771    0.4018
O59    O       0.3979	 0.5000    0.2447
O60    O       0.4153	 0.3824    0.2550
O61    O       0.3804	 0.3898    0.2320
O62    O       0.5000	 0.4261    0.2386
O63    O       0.2017	 0.1978    0.2841
O64    O       0.1763	 0.5000    0.2467
O65    O       0.2540	 0.4189    0.2346
O66    O       0.3783	 0.2019    0.4769
O67    O       0.2945	 0.2501    0.4607
O68    O       0.2490	 0.1842    0.4796
O69    O       0.3146	 0.1218    0.4623
O70    O       0.2086	 0.2503    0.3979
O71    O       0.2497	 0.3082    0.4180
O72    O       0.1219	 0.2858    0.4146
O73    O       0.3762	 0.2148    0.3532
O74    O       0.2496	 0.1841    0.3565
O75    O       0.3769	 0.2769    0.4186
O76    O       0.4060	 0.2498    0.3958
O77    O       0.5000	 0.2882    0.4109
O78    O       0.3817	 0.2875    0.2985
O79    O       0.3909	 0.3220    0.2756
O80    O       0.5000	 0.2998    0.2882
O81    O       0.2939	 0.5000    0.4651
O82    O       0.3771	 0.4278    0.4777
O83    O       0.3205	 0.3772    0.4583
O84    O       0.2491	 0.3994    0.4779
O85    O       0.1194	 0.2047    0.4793
O86    O       0.1046	 0.2517    0.4571
O87    O       0.0000	 0.2142    0.4697
O88    O       0.0840	 0.1246    0.4615
O89    O       0.3033	 0.1981    0.2144
O90    O       0.2901	 0.2959    0.2300
O91    O       0.0000	 0.2135    0.2262
O92    O       0.1041	 0.1748    0.2134
O93    O       0.3818	 0.3119    0.1753
O94    O       0.3910	 0.2815    0.1521
O95    O       0.5000	 0.2974    0.1651
O96    O       0.4232	 0.1939    0.1689
O97    O       0.1205	 0.1890    0.1139
O98    O       0.1029	 0.3022    0.1023
O99    O       0.0000	 0.2291    0.1085
O101	O	0.0807    0.1876    0.0913
O102	O	0.1230    0.2825    0.1713
O103	O	0.0000    0.2916    0.1790
O104	O	0.0930    0.2481    0.1938
O105	O	0.0907    0.3742    0.1873
O106	O	0.1222    0.2904    0.2927
O107	O	0.2521    0.3008    0.2956
O108	O	0.1992    0.4108    0.4999
O109	O	0.1995    0.2945    0.4888
O110	O	0.1201    0.3904    0.4814
O111	O	0.1010    0.3245    0.4372
O112	O	0.2045    0.3310    0.4516
O113	O	0.0896    0.3822    0.4583
O114	O	0.3134    0.2555    0.1930
O115	O	0.2515    0.3032    0.1738
O116	O	0.3069    0.3851    0.1894
O117	O	0.0000    0.2913    0.4232
O118	O	0.0830    0.2000    0.4312
O119	O	0.1952    0.3174    0.1525
O120	O	0.2080    0.1978    0.1620
O121	O	0.3753    0.1732    0.1102
O122	O	0.3285    0.2901    0.1048
O123	O	0.2898    0.1852    0.0922
O124	O	0.2508    0.1999    0.1150
O125	O	0.0000    0.4217    0.4742
O126	O	0.1003    0.5000    0.4688
O127	O	0.0000    0.2950    0.3014
O128	O	0.5000    0.3879    0.4817
O129	O	0.3995    0.3132    0.4886
O130	O	0.4251    0.4251    0.5000
O131	O	0.3120    0.0846    0.4394
O132	O	0.2870    0.1923    0.4266
O133	O	0.3789    0.1081    0.4193
O134	O	0.2526    0.0751    0.4181
O135	O	0.4027    0.2497    0.1290
O136	O	0.4285    0.1211    0.1299
O137	O	0.5000    0.1990    0.1161
O138	O	0.3123    0.3013    0.4389
O139	O	0.1850    0.1280    0.1312
O140	O	0.1760    0.2581    0.1315
O141	O	0.3779    0.3064    0.0549
O142	O	0.4087    0.3168    0.0319
O143	O	0.5000    0.2809    0.0478
O144	O	0.4025    0.1988    0.0422
O145	O	0.1244    0.2071    0.9947
O146	O	0.2524    0.2104    0.9894
O147	O	0.2022    0.1192    0.3975
O148	O	0.1255    0.1059    0.4166
O149	O	0.1715    0.0000    0.4055
O150	O	0.1178    0.2900    0.0494
O151	O	0.1960    0.2007    0.0391
O152	O	0.1902    0.3220    0.0305
O153	O	0.2481    0.2988    0.0516
O154	O	0.4197    0.5000    0.0059
O155	O	0.4184    0.3711    0.0104
O156	O	0.2977    0.3808    0.0678
O157	O	0.3034    0.2521    0.0718
O158	O	0.1866    0.1872    0.3774
O159	O	0.0718    0.2489    0.0704
O160	O	0.1088    0.3739    0.0678
O161	O	0.0000    0.3295    0.0572
O162	O	0.4151    0.1827    0.3754
O163	O	0.5000    0.2358    0.3600
O164	O	0.5000    0.2334    0.4837
O165	O	0.3824    0.1900    0.9907
O166	O	0.3885    0.2447    0.0123
O167	O	0.4266    0.1220    0.0095
O168	O	0.5000    0.2175    0.0004
O169	O	0.3012    0.3364    0.0186
O170	O	0.0926    0.1193    0.0711
O171	O	0.0991    0.0000    0.0614
O172	O	0.1199    0.1059    0.0479
O173	O	0.0000    0.0798    0.0558
O174	O	0.1882    0.0859    0.0278
O175	O	0.2503    0.0937    0.0488
O176	O	0.4103    0.1184    0.3962
O177	O	0.3042    0.1803    0.3878
O178	O	0.4104    0.5000    0.1280
O179	O	0.3767    0.4042    0.1129
O180	O	0.4049    0.3754    0.1355
O181	O	0.5000    0.4135    0.1207
O182	O	0.1217    0.0000    0.4576
O183	O	0.0913    0.0770    0.4392
O184	O	0.2002    0.0997    0.4516
O185	O	0.1814    0.1814    0.5000
O186	O	0.2801    0.0000    0.4566
O187	O	0.2328    0.0000    0.0117
O188	O	0.3092    0.0984    0.0193
O189	O	0.5000    0.1209    0.0493
O190	O	0.3763    0.0913    0.0550
O191	O	0.4177    0.0811    0.0323
O192	O	0.1874    0.2024    0.0777
O193	O	0.0990    0.1177    0.1920
O194	O	0.0000    0.0923    0.1770
O195	O	0.1232    0.1043    0.1688
O196	O	0.0892    0.0000    0.1818
O197	O	0.3902    0.0000    0.0143
O198	O	0.3240    0.3966    0.0911
O199	O	0.2472    0.3873    0.1103
O201	O	0.0000    0.3764    0.1081
O202	O	0.1213    0.4186    0.1128
O203	O	0.0781    0.4114    0.0901
O204	O	0.2959    0.5000    0.0774
O205	O	0.2021    0.4133    0.0830
O206	O	0.2946    0.0000    0.0633
O207	O	0.2852    0.1227    0.0712
O208	O	0.5000    0.0890    0.1666
O209	O	0.3790    0.0768    0.1758
O210	O	0.3945    0.1029    0.1526
O211	O	0.2163    0.0784    0.1527
O212	O	0.2490    0.0976    0.1754
O213	O	0.2143    0.5000    0.1208
O214	O	0.1931    0.3869    0.1321
O215	O	0.1172    0.5000    0.0741
O216	O	0.3018    0.3882    0.2131
O217	O	0.2937    0.3072    0.1368
O218	O	0.2096    0.0000    0.1338
O219	O	0.3067    0.0864    0.1353
O220	O	0.4047    0.0000    0.1379
O221	O	0.2054    0.1870    0.1985
O222	O	0.1062    0.5000    0.1933
O223	O	0.1943    0.4115    0.2003
O224	O	0.2916    0.5000    0.2006
O225	O	0.3183    0.1251    0.1949
O226	O	0.1198    0.0000    0.3354
O227	O	0.3720    0.0000    0.2563
O228	O	0.2995    0.0000    0.1884
O229	O	0.5000    0.0799    0.4121
O230	O	0.4014    0.0000    0.4064
O231	O	0.0000    0.1092    0.4232
T1    Si      0.2186	 0.0757    0.2610
T2    Si      0.2792	 0.0755    0.3306
T3    Si      0.2777	 0.3194    0.3308
T4    Si      0.0773	 0.2004    0.3448
T5    Si      0.4238	 0.1939    0.2460
T6    Si      0.1830	 0.1866    0.2444
T7    Si      0.2200	 0.3155    0.2598
T8    Si      0.0764	 0.4252    0.3488
T9    Si      0.4237	 0.3850    0.3683
T10	Si	0.1913    0.3761    0.3651
T11	Si	0.3766    0.4247    0.3941
T12	Si	0.3137    0.4260    0.3494
T13	Si	0.0746    0.3742    0.2229
T14	Si	0.1217    0.3252    0.3294
T15	Si	0.0760    0.1257    0.3057
T16	Si	0.3109    0.1214    0.3047
T17	Si	0.4240    0.1232    0.2858
T18	Si	0.2217    0.4226    0.3918
T19	Si	0.4231    0.4247    0.2427
T20	Si	0.1924    0.1201    0.2872
T21	Si	0.1839    0.4252    0.2416
T22	Si	0.3089    0.1899    0.4700
T23	Si	0.1910    0.3050    0.4081
T24	Si	0.3083    0.1924    0.3467
T25	Si	0.4229    0.2972    0.4072
T26	Si	0.4238    0.2777    0.2862
T27	Si	0.3100    0.4257    0.4697
T28	Si	0.0772    0.1989    0.4669
T29	Si	0.3038    0.2173    0.2286
T30	Si	0.0789    0.2219    0.2243
T31	Si	0.4241    0.2715    0.1653
T32	Si	0.0761    0.2272    0.1040
T33	Si	0.0769    0.2990    0.1829
T34	Si	0.1937    0.2763    0.2866
T35	Si	0.1922    0.3736    0.4870
T36	Si	0.1249    0.3220    0.4511
T37	Si	0.3134    0.3135    0.1829
T38	Si	0.0765    0.2755    0.4265
T39	Si	0.1946    0.2752    0.1649
T40	Si	0.3103    0.2122    0.1054
T41	Si	0.0776    0.4238    0.4706
T42	Si	0.0766    0.2791    0.3045
T43	Si	0.4252    0.3886    0.4870
T44	Si	0.3077    0.1150    0.4258
T45	Si	0.4261    0.1859    0.1213
T46	Si	0.3067    0.2697    0.4255
T47	Si	0.1838    0.1939    0.1229
T48	Si	0.4226    0.2756    0.0442
T49	Si	0.1987    0.1987    0.0000
T50	Si	0.1882    0.0754    0.4094
T51	Si	0.1881    0.2779    0.0428
T52	Si	0.4268    0.4268    0.0000
T53	Si	0.3063    0.3091    0.0615
T54	Si	0.1905    0.2195    0.3640
T55	Si	0.0750    0.3110    0.0612
T56	Si	0.4236    0.2350    0.3644
T57	Si	0.4225    0.2368    0.4873
T58	Si	0.4247    0.1941    0.0031
T59	Si	0.3789    0.3169    0.0183
T60	Si	0.2226    0.3231    0.0172
T61	Si	0.0779    0.0763    0.0591
T62	Si	0.1887    0.1216    0.0409
T63	Si	0.3840    0.1828    0.3889
T64	Si	0.4230    0.4234    0.1243
T65	Si	0.1240    0.0753    0.4526
T66	Si	0.3099    0.2766    0.3047
T67	Si	0.1870    0.2161    0.4868
T68	Si	0.2768    0.0766    0.4524
T69	Si	0.2342    0.0767    0.0159
T70	Si	0.4239    0.1229    0.0447
T71	Si	0.1084    0.1894    0.0776
T72	Si	0.2827    0.3144    0.4523
T73	Si	0.0773    0.0785    0.1799
T74	Si	0.3860    0.0759    0.0189
T75	Si	0.3193    0.3697    0.1049
T76	Si	0.0758    0.3774    0.1034
T77	Si	0.2798    0.4227    0.0799
T78	Si	0.3016    0.0771    0.0596
T79	Si	0.2665    0.1904    0.0782
T80	Si	0.2253    0.1845    0.3902
T81	Si	0.4244    0.1154    0.1660
T82	Si	0.1987    0.1197    0.1648
T83	Si	0.1937    0.4232    0.1190
T84	Si	0.1262    0.4243    0.0787
T85	Si	0.3063    0.3730    0.2274
T86	Si	0.3732    0.3035    0.1384
T87	Si	0.2293    0.0738    0.1383
T88	Si	0.3837    0.0771    0.1390
T89	Si	0.1257    0.1815    0.1994
T90	Si	0.2147    0.3176    0.1383
T91	Si	0.1165    0.4243    0.1977
T92	Si	0.2736    0.4220    0.2008
T93	Si	0.2848    0.1920    0.2002
T94	Si	0.1254    0.0759    0.3308
T95	Si	0.3694    0.0760    0.2610
T96	Si	0.3113    0.0750    0.1836
T97	Si	0.3775    0.3203    0.2611
T98	Si	0.4225    0.0765    0.4084
T99	Si	0.0753    0.1228    0.4276

